/*--------------------------------*- C++ -*----------------------------------*\
  =========                 |
  \\      /  F ield         | OpenFOAM: The Open Source CFD Toolbox
   \\    /   O peration     | Website:  https://openfoam.org
    \\  /    A nd           | Version:  7
     \\/     M anipulation  |
\*---------------------------------------------------------------------------*/
FoamFile
{
    version     2.0;
    format      ascii;
    class       volScalarField;
    location    "0";
    object      nuTilda;
}
// * * * * * * * * * * * * * * * * * * * * * * * * * * * * * * * * * * * * * //

dimensions      [0 2 -1 0 0 0 0];

internalField   uniform 0;

boundaryField
{
   WALL2
    {
         type zeroGradient;
    }

    WALL1
    {
         type zeroGradient;

    }

    TOP
    {
        type            inletOutlet;
        inletValue      uniform 0;
        value           uniform 0;
    }

    WALL3
    {
          type zeroGradient;
    }
    WALL4
    {
         type zeroGradient;
    }
    BTM
    {
          type zeroGradient;
    }
}


// ************************************************************************* //
