/*--------------------------------*- C++ -*----------------------------------*\
  =========                 |
  \\      /  F ield         | OpenFOAM: The Open Source CFD Toolbox
   \\    /   O peration     | Website:  https://openfoam.org
    \\  /    A nd           | Version:  7
     \\/     M anipulation  |
\*---------------------------------------------------------------------------*/
FoamFile
{
    version     2.0;
    format      ascii;
    class       volScalarField;
    location    "0";
    object      omega;
}
// * * * * * * * * * * * * * * * * * * * * * * * * * * * * * * * * * * * * * //

dimensions      [0 0 -1 0 0 0 0];

internalField   uniform 2;

boundaryField
{
     //- Set patchGroups for constraint patches
    // #includeEtc "caseDicts/setConstraintTypes"

    WALL2
    {
      type kqRWallFunction;
      value uniform 0.01;
    }

    WALL1
    {
      type kqRWallFunction;
      value uniform 0.01;
    }

    TOP
    {
      type inletOutlet;
      inletValue uniform 0.01;
      value uniform 0.01;
    }

    WALL3
    {
      type kqRWallFunction;
      value uniform 0.01;
    }

    WALL4
    {
      type kqRWallFunction;
      value uniform 0.01;
    }
    BTM
    {
      type kqRWallFunction;
      value uniform 0.01;

    }
    //- Set patchGroups for constraint patches
    // #includeEtc "caseDicts/setConstraintTypes"

    // inlet
    // {
    //     type            fixedValue;
    //     value           $internalField;
    // }

    // outlet
    // {
    //    type            inletOutlet;
    //    inletValue      $internalField;
    //    value           $internalField;
    // }

    // atmosphere
    // {
    //     type            inletOutlet;
    //     inletValue      $internalField;
    //     value           $internalField;
    // }

    // hull
    // {
    //     type            omegaWallFunction;
    //     value           $internalField;
    // }
}



// ************************************************************************* //
