/*--------------------------------*- C++ -*----------------------------------*\
  =========                 |
  \\      /  F ield         | OpenFOAM: The Open Source CFD Toolbox
   \\    /   O peration     | Website:  https://openfoam.org
    \\  /    A nd           | Version:  7
     \\/     M anipulation  |
\*---------------------------------------------------------------------------*/
FoamFile
{
 version 2.0;
 format ascii;
 class volScalarField;
 object p_rgh;
}
// * * * * * * * * * * * * * * * * * * * * * * * * * * * * * * //
dimensions [1 -1 -2 0 0 0 0];
internalField uniform 0;
boundaryField
{
 wallBottom
 {
 type zeroGradient;
 }
 atmosphere
 {
 type totalPressure;
 p0 uniform 0;
 U U;
 phi phi;
 rho rho;
 psi none;
 gamma 1;
 value uniform 0;
 }
 walls
 {
 type zeroGradient;
 }
 side1
 {
 type wedge;
 }
 side2
 {
 type wedge;
 }
}
// *********************************************************** //