/*-------------------------*- C++ -*---------------------------*\
| ========= |
|
| \\ / F ield | OpenFOAM: The Open Source CFD
Toolbox |
| \\ / O peration | Version: 2.3.1
|
| \\ / A nd | Web: www.OpenFOAM.org
|
| \\/ M anipulation |
|
\*-------------------------------------------------------------*/
FoamFile
{
 version 2.0;
 format ascii;
 class dictionary;
 object blockMeshDict;
}
// * * * * * * * * * * * * * * * * * * * * * * * * * * * * * * //
convertToMeters 1;
halfAngle 2.5;
radius 0.04;
radHalfAngle #calc "degToRad($halfAngle)";
y #calc "$radius*sin($radHalfAngle)";
minY #calc "-1.0*$y";
z #calc "$radius*cos($radHalfAngle)";
minZ #calc "-1.0*$z";
vertices
(
 (0.0 0.0 0.0) //0
 (0.04 0.0 0.0)
 (0.04 0.0 0.0) //2
 (0.0 0.0 0.0)
 (0.0 $minY $z) //4
 (0.04 $minY $z)
 (0.04 $y $z) //6
 (0.0 $y $z)
);
blocks
(
 hex (0 1 2 3 4 5 6 7) (250 1 250) simpleGrading (1 1 1)
);
edges
(
	 arc 4 7 (0.0 0 $radius)
 arc 5 6 (0.04 0 $radius)
);
boundary
(
 wallBottom
 {
 type wall;
 faces
 (
 (0 4 7 3)
 );
 }
 atmosphere
 {
 type patch;
 faces
 (
 (1 2 6 5)
 );
 }
 walls
 {
 type wall;
 faces
 (
 (4 5 6 7)
 (3 2 1 0)
 );
 }
 side1
 {
 type wedge;
 faces
 (
 (0 1 5 4)
 );
 }
 side2
 {
 type wedge;
 faces
 (
 (7 6 2 3)
 );
 }
);
// *********************************************************** //