/*--------------------------------*- C++ -*----------------------------------*\
  =========                 |
  \\      /  F ield         | OpenFOAM: The Open Source CFD Toolbox
   \\    /   O peration     | Website:  https://openfoam.org
    \\  /    A nd           | Version:  7
     \\/     M anipulation  |
\*---------------------------------------------------------------------------*/
FoamFile
{
    version     2.0;
    format      ascii;
    class       polyBoundaryMesh;
    location    "constant/polyMesh";
    object      boundary;
}
// * * * * * * * * * * * * * * * * * * * * * * * * * * * * * * * * * * * * * //

6
(
    BTM
    {
        type            wall;
        inGroups        List<word> 1(wall);
        nFaces          500;
        startFace       299200;
    }
    TOP
    {
        type            patch;
        nFaces          500;
        startFace       299700;
    }
    WALL1
    {
        type            patch;
        nFaces          300;
        startFace       300200;
    }
    WALL2
    {
        type            patch;
        nFaces          150000;
        startFace       300500;
    }
    WALL3
    {
        type            patch;
        nFaces          300;
        startFace       450500;
    }
    WALL4
    {
        type            patch;
        nFaces          150000;
        startFace       450800;
    }
)

// ************************************************************************* //
